~ diode_test2.net
voltage_source | V1 0 AC(1 0) N001 N0 
diode          | D1 N001 N002 
resistor       | R1 1000 N002 Vout 
capacitor      | C1 1.59155e-07 Vout N0 
gnd            | GND N0 
.ac dec 10.000000 100000.000000 100.000000
