~ Milestone1.net
voltage_source | V1 PULSE(0 5 0 1e-09 1e-09 0.01 0.02 20) N001 N0 
resistor       | R1 10 N001 N002 
inductor       | L1 0.001 N002 Vout 
capacitor      | C1 1e-06 Vout N0 
gnd            | GND N0 
.tran 0.000000 0.002000 0.000005
